Version 4
SHEET 1 1840 680
WIRE 272 -624 -272 -624
WIRE 416 -624 336 -624
WIRE 416 -480 416 -624
WIRE 528 -480 416 -480
WIRE 896 -480 528 -480
WIRE -272 -96 -272 -624
WIRE -272 -96 -288 -96
WIRE -96 -96 -272 -96
WIRE 0 -96 -96 -96
WIRE 112 -96 0 -96
WIRE 224 -96 112 -96
WIRE 240 -96 224 -96
WIRE 336 -96 320 -96
WIRE 368 -96 336 -96
WIRE 416 -96 368 -96
WIRE 592 -96 480 -96
WIRE 768 -96 592 -96
WIRE 784 -96 768 -96
WIRE 896 -96 896 -480
WIRE 896 -96 864 -96
WIRE 592 -80 592 -96
WIRE -288 -64 -288 -96
WIRE -288 -64 -480 -64
WIRE 112 -32 112 -96
WIRE 224 -32 224 -96
WIRE 336 -32 336 -96
WIRE 0 32 0 -96
WIRE 48 32 0 32
WIRE 592 32 592 0
WIRE 592 32 400 32
WIRE -480 48 -480 -64
WIRE -288 64 -288 0
WIRE -96 96 -96 -96
WIRE 48 96 -96 96
WIRE 480 96 400 96
WIRE 48 160 -32 160
WIRE 480 160 480 96
WIRE 480 160 400 160
WIRE -32 176 -32 160
WIRE -32 176 -768 176
WIRE 48 224 -640 224
WIRE 768 224 768 -96
WIRE 768 224 400 224
WIRE -640 240 -640 224
WIRE 48 288 -208 288
WIRE 896 288 896 -96
WIRE 896 288 400 288
WIRE -208 320 -208 288
WIRE 768 336 768 224
WIRE -64 352 -80 352
WIRE 48 352 16 352
WIRE 480 352 400 352
WIRE 480 368 480 352
WIRE 592 368 592 32
WIRE -80 400 -80 352
WIRE -768 480 -768 256
WIRE -640 480 -640 320
WIRE -640 480 -768 480
WIRE -480 480 -480 112
WIRE -480 480 -640 480
WIRE -208 480 -208 384
WIRE -208 480 -480 480
WIRE -80 480 -80 464
WIRE -80 480 -208 480
WIRE 224 480 224 400
WIRE 224 480 -80 480
WIRE 480 480 480 448
WIRE 480 480 224 480
WIRE 592 480 592 448
WIRE 592 480 480 480
WIRE 768 480 768 400
WIRE 768 480 592 480
WIRE 864 480 768 480
WIRE 864 528 864 480
FLAG 864 528 0
FLAG -288 64 0
FLAG 528 -480 VLED_ANOT
FLAG 368 -96 VSW
SYMBOL PowerProducts\\LT3477 224 160 R0
SYMATTR InstName U1
SYMBOL res 880 -112 R90
WINDOW 0 0 56 VBottom 2
WINDOW 3 32 56 VTop 2
SYMATTR InstName R1
SYMATTR Value 0.1
SYMATTR SpiceLine tol=1
SYMBOL res 464 352 R0
SYMATTR InstName R2
SYMATTR Value 18k
SYMATTR SpiceLine tol=1 pwr=0.1
SYMBOL cap -304 -64 R0
SYMATTR InstName C1
SYMATTR Value 100µ
SYMATTR SpiceLine V=10
SYMBOL cap 752 336 R0
SYMATTR InstName C2
SYMATTR Value 100µ
SYMBOL cap -224 320 R0
SYMATTR InstName C3
SYMATTR Value 0.033µ
SYMATTR SpiceLine V=10
SYMBOL cap -96 400 R0
SYMATTR InstName C4
SYMATTR Value 0.0047µ
SYMATTR SpiceLine V=10
SYMBOL ind 224 -80 R270
WINDOW 0 32 56 VTop 2
WINDOW 3 2 61 VBottom 2
SYMATTR InstName L1
SYMATTR Value 4.7µ
SYMATTR SpiceLine Ipk=7.5 Rser=.025 Rpar=0 Cpar=0
SYMBOL Misc\\cell -480 48 R0
WINDOW 123 0 0 Left 0
WINDOW 39 24 84 Left 2
SYMATTR SpiceLine Rser=50m
SYMATTR InstName V1
SYMATTR Value 8,2
SYMBOL res 576 -96 R0
SYMATTR InstName R3
SYMATTR Value 280k
SYMATTR SpiceLine tol=1 pwr=10
SYMBOL res 576 352 R0
SYMATTR InstName R4
SYMATTR Value 10k
SYMATTR SpiceLine tol=1 pwr=10
SYMBOL schottky 416 -80 R270
WINDOW 0 32 32 VTop 2
WINDOW 3 0 32 VBottom 2
SYMATTR InstName D3
SYMATTR Value MBRS140
SYMBOL LED 336 -640 R90
WINDOW 0 0 32 VBottom 2
WINDOW 3 72 32 VTop 2
SYMATTR InstName D1
SYMATTR Value XHP70B
SYMATTR Prefix X
SYMBOL voltage -640 224 R0
WINDOW 123 0 0 Left 0
WINDOW 39 0 0 Left 0
SYMATTR InstName V2
SYMATTR Value 5
SYMBOL res 32 336 R90
WINDOW 0 0 56 VBottom 2
WINDOW 3 32 56 VTop 2
SYMATTR InstName R5
SYMATTR Value 1k
SYMATTR SpiceLine tol=1
SYMBOL voltage -768 160 R0
WINDOW 123 0 0 Left 0
WINDOW 39 0 0 Left 0
SYMATTR InstName V3
SYMATTR Value 650mV
TEXT -1520 -384 Left 2 !.options plotwinsize=0
TEXT -1544 -864 Left 2 !.SUBCKT SS34 1 2\nD1 1 2 SS34_MODEL\n.model SS34_MODEL D(IS=1e-8 N=1.15 RS=0.05 BV=40 IBV=0.1m CJO=200p TT=10n)\n.ENDS SS34
TEXT -1520 -680 Left 2 !.options reltol=1e-3 abstol=1e-6
TEXT -1528 -616 Left 2 !.options noopiter\n.options cshunt=1e-15\n.options gmin=1e-10\n.options reltol=0.003\n.options method=gear\n.tran 50ms startup
TEXT -1544 -1072 Left 2 !.SUBCKT XHP70B A K\nD1 A N1 D_XHP70B \nRTH N1 K 0.08\n.model D_XHP70B D ( IS=1.514622338934E-29 N=6.194159830657 RS=0.4638904263578 Tnom=85 EG=2.75555555555556 XTI=309.431044693323 )\n.ENDS XHP70B D
TEXT -744 32 Left 2 ;Li-0n Battary with BMS
TEXT -1032 208 Left 2 ;0-650 mV from MCU
TEXT -720 344 Left 2 ;5V from regulator
